Version 4
SHEET 1 1252 680
WIRE 208 -464 -320 -464
WIRE 304 -464 208 -464
WIRE 416 -464 304 -464
WIRE 576 -464 416 -464
WIRE -320 -336 -320 -464
WIRE 208 -336 208 -464
WIRE 416 -192 416 -464
WIRE 32 -176 -288 -176
WIRE 128 -176 112 -176
WIRE 160 -176 128 -176
WIRE 576 -176 576 -464
WIRE 208 -160 160 -160
WIRE -288 -128 -288 -176
WIRE 208 -128 208 -160
WIRE 480 -80 448 -80
WIRE 576 -80 576 -112
WIRE 576 -80 544 -80
WIRE 64 -64 0 -64
WIRE 160 -64 160 -160
WIRE 160 -64 64 -64
WIRE 208 -32 208 -48
WIRE 304 -32 208 -32
WIRE 448 -32 448 -80
WIRE 448 -32 304 -32
WIRE 864 -32 448 -32
WIRE 976 -32 944 -32
WIRE -288 16 -288 -48
WIRE 0 16 0 -64
WIRE 0 16 -288 16
WIRE 304 32 304 -32
WIRE 336 32 304 32
WIRE 416 32 416 -112
WIRE 416 32 400 32
WIRE 208 48 208 -32
WIRE -208 64 -272 64
WIRE 416 64 416 32
WIRE 576 64 576 -80
WIRE 976 80 976 -32
WIRE -272 208 -272 128
WIRE -208 208 -272 208
WIRE -128 208 -144 208
WIRE -96 208 -128 208
WIRE 16 208 -32 208
WIRE 128 208 96 208
WIRE 160 208 128 208
WIRE 208 224 192 224
WIRE 208 240 208 224
WIRE 192 272 192 224
WIRE 192 272 48 272
WIRE 416 320 416 128
WIRE 576 320 576 144
WIRE -272 336 -272 208
WIRE -272 432 -272 416
WIRE 48 432 48 272
WIRE 48 432 -272 432
WIRE 208 432 208 320
WIRE -272 448 -272 432
FLAG -272 448 0
FLAG -320 -256 0
FLAG 208 -32 vmid
FLAG 976 80 0
FLAG -640 256 0
FLAG -640 176 +12
FLAG -64 240 +12
FLAG -512 240 0
FLAG -512 160 meas_gateh
FLAG 128 -176 gateh
FLAG 128 208 gatel
FLAG -512 528 0
FLAG -512 448 meas_gatel
FLAG -144 64 ¬vgate_del
FLAG 416 320 0
FLAG 576 320 0
FLAG 576 -80 sn_n
FLAG 416 32 sn_p
FLAG 736 -256 0
FLAG 304 -464 rail_dc
FLAG 736 -336 meas_cap_sn_n
FLAG -128 208 gate_del
FLAG 208 432 0
FLAG 64 -64 vgateh_ret
SYMBOL nmos 160 128 R0
WINDOW 3 112 -36 VRight 2
SYMATTR Value IRFH5207
SYMATTR InstName M1
SYMBOL voltage -272 320 R0
WINDOW 123 0 0 Left 2
WINDOW 39 0 0 Left 2
WINDOW 3 -576 -268 VRight 2
SYMATTR Value PULSE(1 0 10e-9 0 0 10u 20u)
SYMATTR InstName V1
SYMBOL voltage -320 -352 R0
WINDOW 123 0 0 Left 0
WINDOW 39 0 0 Left 0
SYMATTR InstName V2
SYMATTR Value 30
SYMBOL res 112 192 R90
WINDOW 0 0 56 VBottom 2
WINDOW 3 32 56 VTop 2
SYMATTR InstName R1
SYMATTR Value 10
SYMBOL nmos 160 -256 R0
WINDOW 3 112 -36 VRight 2
SYMATTR Value IRFH5207
SYMATTR InstName M2
SYMBOL res 128 -192 R90
WINDOW 0 0 56 VBottom 2
WINDOW 3 32 56 VTop 2
SYMATTR InstName R2
SYMATTR Value 10
SYMBOL current 864 -32 R270
WINDOW 0 32 40 VTop 2
WINDOW 3 -32 40 VBottom 2
WINDOW 123 0 0 Left 0
WINDOW 39 0 0 Left 0
SYMATTR InstName I1
SYMATTR Value 20
SYMBOL LTspiceControlLibrary\\PulseModulations\\OnOffDelay -192 240 R0
WINDOW 3 -52 -70 Left 2
SYMATTR Value Ton=100n Toff=0u
SYMATTR InstName U2
SYMBOL LTspiceControlLibrary\\Math\\Operands\\mul -80 240 R0
SYMATTR InstName U3
SYMBOL voltage -640 160 R0
WINDOW 123 0 0 Left 0
WINDOW 39 0 0 Left 0
SYMATTR InstName V3
SYMATTR Value 12
SYMBOL bv -288 -144 R0
SYMATTR InstName B1
SYMATTR Value V=12*V(¬vgate_del)
SYMBOL bv -512 144 R0
WINDOW 3 76 -118 VRight 2
SYMATTR Value V=V(gateh)-V(vgateh_ret)
SYMATTR InstName B2
SYMBOL Digital\\inv -336 128 R270
SYMATTR InstName A1
SYMBOL bv -512 432 R0
WINDOW 3 76 -118 VRight 2
SYMATTR Value V=V(gatel)
SYMATTR InstName B3
SYMBOL LTspiceControlLibrary\\PulseModulations\\OnOffDelay -192 96 R0
WINDOW 3 -52 -70 Left 2
SYMATTR Value Ton=100n Toff=0u
SYMATTR InstName U1
SYMBOL ind 192 224 R0
SYMATTR InstName L1
SYMATTR Value 10n
SYMBOL ind 192 32 R0
SYMATTR InstName L2
SYMATTR Value 10n
SYMBOL ind 192 -144 R0
SYMATTR InstName L3
SYMATTR Value 10n
SYMBOL ind 192 -352 R0
SYMATTR InstName L4
SYMATTR Value 10n
SYMBOL cap 400 64 R0
SYMATTR InstName C1
SYMATTR Value 1µ
SYMBOL res 400 -208 R0
SYMATTR InstName R3
SYMATTR Value 2
SYMBOL cap 560 -176 R0
SYMATTR InstName C2
SYMATTR Value 1µ
SYMBOL res 560 48 R0
SYMATTR InstName R4
SYMATTR Value 2
SYMBOL bv 736 -352 R0
SYMATTR InstName B4
SYMATTR Value V=V(rail_dc)-V(sn_n)
SYMBOL diode 336 48 R270
WINDOW 0 32 32 VTop 2
WINDOW 3 0 32 VBottom 2
SYMATTR InstName D2
SYMBOL diode 544 -96 R90
WINDOW 0 0 32 VBottom 2
WINDOW 3 32 32 VTop 2
SYMATTR InstName D1
TEXT 16 344 Left 2 !.tran 0 100u 0 1n
TEXT 1032 96 Left 2 ;RDSon Test Circuit
TEXT -280 -592 Left 2 !.ic I(L1)=0 I(L2)=0 I(L3)=20 I(L4)=20 V(C2)=30 V(C1)=30
TEXT -752 -712 Left 2 ;half bridge simulation using a 100ns interlock and RCD overvoltage snubbers
TEXT -752 -680 Left 2 ;to measure power press "alt" and click on a component, to measure avg power, click the trace name pressing "ctrl"in the plot window
TEXT -744 -632 Left 2 ;Pavg(Rsnubber) =~ 60mW
TEXT -760 -792 Left 5 ;RCD half-bridge snubber
